test/data/matpower/case5_gap.m
% uses negative generator costs to test convex relaxations
% voltage mag and voltage angle difference bounds are key

function mpc = case5_gap
mpc.version = '2';
mpc.baseMVA = 100.0;

%% bus data
%	bus_i	type	Pd	Qd	Gs	Bs	area	Vm	Va	baseKV	zone	Vmax	Vmin
mpc.bus = [
	1	 2	 0.0	 0.0	 0.0	 0.0	 1	    1.07762	    2.80377	 230.0	 1	    1.10000	    0.90000;
	2	 1	 300.0	 98.61	 0.0	 0.0	 1	    1.08407	   -0.73465	 230.0	 1	    1.09071	    0.90000;
	3	 2	 300.0	 98.61	 0.0	 0.0	 1	    1.10000	   -0.55972	 230.0	 1	    1.10000	    0.90000;
	4	 3	 400.0	 131.47	 0.0	 0.0	 1	    1.06414	    0.00000	 230.0	 1	    1.09981	    0.90000;
	5	 2	 0.0	 0.0	 0.0	 0.0	 1	    1.06907	    3.59033	 230.0	 1	    1.10000	    0.90000;
];

%% generator data
%	bus	Pg	Qg	Qmax	Qmin	Vg	mBase	status	Pmax	Pmin	Pc1	Pc2	Qc1min	Qc1max	Qc2min	Qc2max	ramp_agc	ramp_10	ramp_30	ramp_q	apf
mpc.gen = [
	1	 40.0	 30.0	 30.0	 -30.0	 1.07762	 100.0	 1	 40.0	 0.0	 0.0	 0.0	 0.0	 0.0	 0.0	 0.0	 0.0	 0.0	 0.0	 0.0	 0.0;
	1	 170.0	 127.5	 127.5	 -127.5	 1.07762	 100.0	 1	 170.0	 0.0	 0.0	 0.0	 0.0	 0.0	 0.0	 0.0	 0.0	 0.0	 0.0	 0.0	 0.0;
	3	 324.498	 390.0	 390.0	 -390.0	 1.1	 100.0	 1	 520.0	 0.0	 0.0	 0.0	 0.0	 0.0	 0.0	 0.0	 0.0	 0.0	 0.0	 0.0	 0.0;
	4	 0.0	 -10.802	 150.0	 -150.0	 1.06414	 100.0	 1	 200.0	 0.0	 0.0	 0.0	 0.0	 0.0	 0.0	 0.0	 0.0	 0.0	 0.0	 0.0	 0.0;
	5	 470.694	 -165.039	 450.0	 -450.0	 1.06907	 100.0	 1	 600.0	 0.0	 0.0	 0.0	 0.0	 0.0	 0.0	 0.0	 0.0	 0.0	 0.0	 0.0	 0.0;
];

%% generator cost data
%	2	startup	shutdown	n	c(n-1)	...	c0
mpc.gencost = [
	2	 0.0	 0.0	 3	   0.000000	  -14.000000	   0.000000;
	2	 0.0	 0.0	 3	   0.000000	  -15.000000	   0.000000;
	2	 0.0	 0.0	 3	   0.000000	  -30.000000	   0.000000;
	2	 0.0	 0.0	 3	   0.000000	  -40.000000	   0.000000;
	2	 0.0	 0.0	 3	   0.000000	  -10.000000	   0.000000;
];

%% branch data
%	fbus	tbus	r	x	b	rateA	rateB	rateC	ratio	angle	status	angmin	angmax
mpc.branch = [
	1	 2	 0.00281	 0.0281	 0.00712	 400.0	 400.0	 400.0	 0.0	 0.0	 1	 1.13502939215	 7.37625865451;
	1	 4	 0.00304	 0.0304	 0.00658	 426.0	 426.0	 426.0	 0.0	 0.0	 1	 0.658328506605	 4.09149161503;
	1	 5	 0.00064	 0.0064	 0.03126	 426.0	 426.0	 426.0	 0.0	 0.0	 1	 -1.85752917181	 0.214859173174;
	2	 3	 0.00108	 0.0108	 0.01852	 426.0	 426.0	 426.0	 0.0	 0.0	 1	 -1.6352215473	 0.67895498723;
	3	 4	 0.00297	 0.0297	 0.00674	 426.0	 426.0	 426.0	 0.0	 0.0	 1	 -4.41979643164	 2.02540580579;
	4	 5	 0.00297	 0.0297	 0.00674	 240.0	 240.0	 240.0	 0.0	 0.0	 1	 -5.06895761352	 -0.827924013964;
];

%% dcline data
%	fbus	tbus	status	Pf	Pt	Qf	Qt	Vf	Vt	Pmin	Pmax	QminF	QmaxF	QminT	QmaxT	loss0	loss1
mpc.dcline = [
	3	5	1	0 0	0	0	1.1	1.05555	0	0 	0	0	0 0	0	0;
];
